goiania_leste_dss/TR1/CTMT_5001991.dss
! ==============================================================================
! ALIMENTADOR CTMT_5001991 - GOIANIA LESTE-9
! Subestacao: Trafo TR1 (GOL-S-TRF-TR1) | Barra MT: 1783 -> PAC_INI: 84804375001991
! ==============================================================================

! 1. Disjuntor de Saida MT do Alimentador
new line.DJ_5001991 phases=3 bus1=1783 bus2=84804375001991 switch=y r1=1e-4 x1=1e-4 length=0.001 units=km

! 2. Linhas de Media Tensao (MT)
new line.52874491 phases=3 bus1=80446775001991.1.2.3 bus2=80446765001991.1.2.3 r1=1.551 x1=0.49 length=0.017141 units=km normamps=114.0
new line.52874492 phases=3 bus1=80446785001991B.1.2.3 bus2=80446775001991.1.2.3 r1=1.551 x1=0.49 length=0.019103 units=km normamps=114.0
new line.52874493 phases=3 bus1=80446695001991B.1.2.3 bus2=80446795001991.1.2.3 r1=1.564 x1=0.51 length=0.019401 units=km normamps=120.0
new line.52874494 phases=3 bus1=80444315001991.1.2.3 bus2=80444345001991.1.2.3 r1=0.195 x1=0.4 length=0.015201 units=km normamps=419.0
new line.52874495 phases=3 bus1=80444345001991.1.2.3 bus2=94777545001991.1.2.3 r1=0.195 x1=0.4 length=0.003563 units=km normamps=419.0
new line.52874496 phases=3 bus1=80446805001991.1.2.3 bus2=80446815001991.1.2.3 r1=2.389 x1=0.52 length=0.004377 units=km normamps=90.0
new line.52874497 phases=3 bus1=80446825001991.1.2.3 bus2=80446815001991.1.2.3 r1=2.389 x1=0.52 length=0.008955 units=km normamps=90.0
new line.52874498 phases=3 bus1=80446815001991.1.2.3 bus2=80446835001991.1.2.3 r1=2.389 x1=0.52 length=0.010676 units=km normamps=90.0
new line.52874499 phases=3 bus1=80446845001991.1.2.3 bus2=94775725001991.1.2.3 r1=0.195 x1=0.4 length=0.007991 units=km normamps=419.0
new line.52874501 phases=3 bus1=80446865001991.1.2.3 bus2=80446845001991.1.2.3 r1=0.195 x1=0.4 length=0.011023 units=km normamps=419.0
new line.52874502 phases=3 bus1=80446875001991.1.2.3 bus2=80446865001991.1.2.3 r1=0.195 x1=0.4 length=0.00567 units=km normamps=419.0
new line.52874503 phases=3 bus1=80446885001991.1.2.3 bus2=80446795001991.1.2.3 r1=1.564 x1=0.51 length=0.009867 units=km normamps=120.0
new line.52874504 phases=3 bus1=80446895001991.1.2.3 bus2=80446865001991.1.2.3 r1=0.195 x1=0.4 length=0.015874 units=km normamps=419.0
new line.52874505 phases=3 bus1=80446905001991.1.2.3 bus2=80446745001991.1.2.3 r1=1.551 x1=0.49 length=0.010841 units=km normamps=114.0
new line.52874506 phases=3 bus1=80446915001991.1.2.3 bus2=80446925001991.1.2.3 r1=0.195 x1=0.4 length=0.013293 units=km normamps=419.0
new line.52874507 phases=3 bus1=80446925001991.1.2.3 bus2=80446895001991.1.2.3 r1=0.195 x1=0.4 length=0.017473 units=km normamps=419.0
new line.52874508 phases=3 bus1=80446925001991.1.2.3 bus2=80446935001991.1.2.3 r1=0.613 x1=0.45 length=0.008796 units=km normamps=203.0
new line.52874509 phases=3 bus1=80446935001991B.1.2.3 bus2=80446945001991.1.2.3 r1=1.551 x1=0.49 length=0.028134 units=km normamps=114.0
new line.52874510 phases=3 bus1=80446945001991.1.2.3 bus2=80446955001991.1.2.3 r1=1.551 x1=0.49 length=0.030752 units=km normamps=114.0
new line.52874511 phases=3 bus1=80446965001991.1.2.3 bus2=80446955001991.1.2.3 r1=1.551 x1=0.49 length=0.007608 units=km normamps=114.0
new line.52874512 phases=3 bus1=80446955001991.1.2.3 bus2=80446975001991.1.2.3 r1=1.551 x1=0.49 length=0.028795 units=km normamps=114.0
new line.52874513 phases=3 bus1=80446975001991.1.2.3 bus2=80446285001991.1.2.3 r1=1.551 x1=0.49 length=0.031365 units=km normamps=114.0
new line.52874514 phases=3 bus1=80446985001991.1.2.3 bus2=80446915001991.1.2.3 r1=0.195 x1=0.4 length=0.03556 units=km normamps=419.0
new line.52874515 phases=3 bus1=80442905001991.1.2.3 bus2=80442915001991.1.2.3 r1=0.195 x1=0.4 length=0.038492 units=km normamps=419.0
new line.52874516 phases=3 bus1=80442915001991.1.2.3 bus2=80442925001991.1.2.3 r1=0.195 x1=0.4 length=0.031749 units=km normamps=419.0
new line.52874517 phases=3 bus1=80442925001991.1.2.3 bus2=80442935001991.1.2.3 r1=0.195 x1=0.4 length=0.036531 units=km normamps=419.0
new line.52874518 phases=3 bus1=80442935001991.1.2.3 bus2=80443015001991.1.2.3 r1=0.195 x1=0.4 length=0.037221 units=km normamps=419.0
new line.52874519 phases=3 bus1=80443015001991.1.2.3 bus2=80443025001991.1.2.3 r1=0.195 x1=0.4 length=0.025564 units=km normamps=419.0
new line.52874520 phases=3 bus1=80443045001991.1.2.3 bus2=80443055001991B.1.2.3 r1=0.195 x1=0.4 length=0.037506 units=km normamps=419.0
new line.52874521 phases=3 bus1=80443025001991.1.2.3 bus2=80443045001991.1.2.3 r1=0.195 x1=0.4 length=0.026547 units=km normamps=419.0
new line.52874522 phases=3 bus1=80443055001991.1.2.3 bus2=80443065001991.1.2.3 r1=0.195 x1=0.4 length=0.036954 units=km normamps=419.0
new line.52874523 phases=3 bus1=80443075001991.1.2.3 bus2=80443065001991B.1.2.3 r1=1.551 x1=0.49 length=0.019654 units=km normamps=114.0
new line.52874524 phases=3 bus1=80443085001991.1.2.3 bus2=80443075001991.1.2.3 r1=1.551 x1=0.49 length=0.028058 units=km normamps=114.0
new line.52874526 phases=3 bus1=80443105001991B.1.2.3 bus2=80443115001991.1.2.3 r1=0.195 x1=0.4 length=0.027816 units=km normamps=419.0
new line.52874527 phases=3 bus1=80443065001991.1.2.3 bus2=80443105001991.1.2.3 r1=0.195 x1=0.4 length=0.033991 units=km normamps=419.0
new line.52874528 phases=3 bus1=80443175001991.1.2.3 bus2=94724625001991.1.2.3 r1=0.195 x1=0.4 length=0.00856 units=km normamps=419.0
new line.52874529 phases=3 bus1=80441225001991.1.2.3 bus2=80443175001991.1.2.3 r1=0.195 x1=0.4 length=0.03944 units=km normamps=419.0
new line.52874530 phases=3 bus1=80443115001991.1.2.3 bus2=80443185001991.1.2.3 r1=0.195 x1=0.4 length=0.041426 units=km normamps=419.0
new line.52874531 phases=3 bus1=80443165001991.1.2.3 bus2=80443185001991.1.2.3 r1=0.195 x1=0.4 length=0.012881 units=km normamps=419.0
new line.52874532 phases=3 bus1=80443185001991.1.2.3 bus2=80442605001991.1.2.3 r1=0.195 x1=0.4 length=0.008432 units=km normamps=419.0
new line.52874533 phases=3 bus1=80443185001991.1.2.3 bus2=80443195001991.1.2.3 r1=0.195 x1=0.4 length=0.024804 units=km normamps=419.0
new line.52874534 phases=3 bus1=80443325001991.1.2.3 bus2=80443335001991.1.2.3 r1=0.975 x1=0.47 length=0.025222 units=km normamps=152.0
new line.52874535 phases=3 bus1=80443355001991.1.2.3 bus2=80443335001991.1.2.3 r1=0.975 x1=0.47 length=0.037458 units=km normamps=152.0
new line.52874536 phases=3 bus1=80443365001991.1.2.3 bus2=80443375001991.1.2.3 r1=0.975 x1=0.47 length=0.038492 units=km normamps=152.0
new line.52874537 phases=3 bus1=80443375001991.1.2.3 bus2=80443425001991.1.2.3 r1=0.975 x1=0.47 length=0.031367 units=km normamps=152.0
new line.52874538 phases=3 bus1=80443425001991.1.2.3 bus2=80443435001991.1.2.3 r1=0.975 x1=0.47 length=0.030506 units=km normamps=152.0
new line.52874539 phases=3 bus1=80443435001991.1.2.3 bus2=80443445001991.1.2.3 r1=0.975 x1=0.47 length=0.026841 units=km normamps=152.0
new line.52874540 phases=3 bus1=80443445001991.1.2.3 bus2=80443455001991.1.2.3 r1=0.975 x1=0.47 length=0.035954 units=km normamps=152.0
new line.52874541 phases=3 bus1=80443465001991.1.2.3 bus2=80443475001991.1.2.3 r1=1.551 x1=0.49 length=0.021174 units=km normamps=114.0
new line.52874542 phases=3 bus1=80443355001991.1.2.3 bus2=80443365001991.1.2.3 r1=0.975 x1=0.47 length=0.043674 units=km normamps=152.0
new line.52874545 phases=3 bus1=80443705001991.1.2.3 bus2=80443695001991.1.2.3 r1=0.195 x1=0.4 length=0.025644 units=km normamps=419.0
new line.52874546 phases=3 bus1=80443715001991.1.2.3 bus2=80443465001991.1.2.3 r1=1.551 x1=0.49 length=0.041157 units=km normamps=114.0
new line.52874547 phases=3 bus1=80443725001991B.1.2.3 bus2=80443715001991.1.2.3 r1=0.975 x1=0.47 length=0.012813 units=km normamps=152.0
new line.52874548 phases=3 bus1=80443735001991.1.2.3 bus2=80443725001991.1.2.3 r1=0.195 x1=0.4 length=0.033729 units=km normamps=419.0
new line.52874549 phases=3 bus1=80443745001991.1.2.3 bus2=80443735001991.1.2.3 r1=0.195 x1=0.4 length=0.006634 units=km normamps=419.0
new line.52874550 phases=3 bus1=80443755001991.1.2.3 bus2=80443735001991.1.2.3 r1=0.195 x1=0.4 length=0.026547 units=km normamps=419.0
new line.52874551 phases=3 bus1=80443765001991.1.2.3 bus2=80443755001991.1.2.3 r1=0.195 x1=0.4 length=0.024584 units=km normamps=419.0
new line.52874552 phases=3 bus1=80443775001991.1.2.3 bus2=80443765001991.1.2.3 r1=1.551 x1=0.49 length=0.014631 units=km normamps=114.0
new line.52874553 phases=3 bus1=80443455001991.1.2.3 bus2=80443775001991B.1.2.3 r1=0.975 x1=0.47 length=0.035259 units=km normamps=152.0
new line.52874554 phases=3 bus1=80443765001991.1.2.3 bus2=80443785001991.1.2.3 r1=0.195 x1=0.4 length=0.037506 units=km normamps=419.0
new line.52874555 phases=3 bus1=80443795001991.1.2.3 bus2=80443785001991.1.2.3 r1=0.195 x1=0.4 length=0.031049 units=km normamps=419.0
new line.52874556 phases=3 bus1=80443805001991B.1.2.3 bus2=80443795001991.1.2.3 r1=0.195 x1=0.4 length=0.031749 units=km normamps=419.0
new line.52874557 phases=3 bus1=80443805001991.1.2.3 bus2=80442905001991.1.2.3 r1=0.195 x1=0.4 length=0.024616 units=km normamps=419.0
new line.52874558 phases=3 bus1=80444425001991.1.2.3 bus2=80447755001991.1.2.3 r1=1.551 x1=0.49 length=0.011969 units=km normamps=114.0
new line.52874559 phases=3 bus1=80443725001991.1.2.3 bus2=96894955001991.1.2.3 r1=0.195 x1=0.4 length=0.017283 units=km normamps=419.0
new line.52874560 phases=3 bus1=80443905001991.1.2.3 bus2=80443705001991B.1.2.3 r1=0.195 x1=0.4 length=0.071498 units=km normamps=419.0
new line.52874561 phases=3 bus1=80440615001991.1.2.3 bus2=80440625001991.1.2.3 r1=1.551 x1=0.49 length=0.032148 units=km normamps=114.0
new line.52874562 phases=3 bus1=80440635001991.1.2.3 bus2=80440625001991.1.2.3 r1=1.551 x1=0.49 length=0.03292 units=km normamps=114.0
new line.52874563 phases=3 bus1=80440675001991B.1.2.3 bus2=80440635001991.1.2.3 r1=1.551 x1=0.49 length=0.024881 units=km normamps=114.0
new line.52874564 phases=3 bus1=80440695001991.1.2.3 bus2=80440725001991.1.2.3 r1=0.975 x1=0.47 length=0.023946 units=km normamps=152.0
new line.52874565 phases=3 bus1=80440735001991.1.2.3 bus2=80440685001991.1.2.3 r1=1.551 x1=0.49 length=0.019082 units=km normamps=114.0
new line.52874566 phases=3 bus1=80440685001991.1.2.3 bus2=80440705001991.1.2.3 r1=1.551 x1=0.49 length=0.006619 units=km normamps=114.0
new line.52874567 phases=3 bus1=80440705001991.1.2.3 bus2=80440695001991.1.2.3 r1=0.975 x1=0.47 length=0.009904 units=km normamps=152.0
new line.52874568 phases=3 bus1=80440745001991.1.2.3 bus2=80440705001991.1.2.3 r1=0.975 x1=0.47 length=0.025672 units=km normamps=152.0
new line.52874569 phases=3 bus1=80440675001991.1.2.3 bus2=80440705001991.1.2.3 r1=1.551 x1=0.49 length=0.035303 units=km normamps=114.0
new line.52874576 phases=3 bus1=80441155001991.1.2.3 bus2=80441145001991.1.2.3 r1=0.975 x1=0.47 length=0.026547 units=km normamps=152.0
new line.52874577 phases=3 bus1=80441165001991.1.2.3 bus2=80441155001991.1.2.3 r1=0.975 x1=0.47 length=0.033008 units=km normamps=152.0
new line.52874578 phases=3 bus1=80441175001991.1.2.3 bus2=80441165001991.1.2.3 r1=0.975 x1=0.47 length=0.007608 units=km normamps=152.0
new line.52874579 phases=3 bus1=80441195001991B.1.2.3 bus2=80441145001991.1.2.3 r1=0.975 x1=0.47 length=0.028522 units=km normamps=152.0
new line.52874580 phases=3 bus1=80441195001991.1.2.3 bus2=80441205001991.1.2.3 r1=0.195 x1=0.4 length=0.033727 units=km normamps=419.0
new line.52874581 phases=3 bus1=80441205001991.1.2.3 bus2=80441215001991.1.2.3 r1=0.195 x1=0.4 length=0.048022 units=km normamps=419.0
new line.52874582 phases=3 bus1=80441215001991.1.2.3 bus2=80441225001991.1.2.3 r1=0.195 x1=0.4 length=0.033401 units=km normamps=419.0
new line.52874583 phases=3 bus1=80440735001991.1.2.3 bus2=80441955001991.1.2.3 r1=1.551 x1=0.49 length=0.020142 units=km normamps=114.0
new line.52874584 phases=3 bus1=80441965001991.1.2.3 bus2=80441955001991.1.2.3 r1=1.551 x1=0.49 length=0.039129 units=km normamps=114.0
new line.52874585 phases=3 bus1=80441975001991.1.2.3 bus2=80441965001991.1.2.3 r1=1.551 x1=0.49 length=0.040696 units=km normamps=114.0
new line.52874586 phases=3 bus1=80441985001991.1.2.3 bus2=80441975001991.1.2.3 r1=1.551 x1=0.49 length=0.030775 units=km normamps=114.0
new line.52874587 phases=3 bus1=80441995001991.1.2.3 bus2=80441985001991.1.2.3 r1=1.551 x1=0.49 length=0.038562 units=km normamps=114.0
new line.52874588 phases=3 bus1=80441995001991.1.2.3 bus2=80442005001991.1.2.3 r1=1.551 x1=0.49 length=0.037067 units=km normamps=114.0
new line.52874589 phases=3 bus1=80442015001991B.1.2.3 bus2=80442005001991.1.2.3 r1=1.551 x1=0.49 length=0.026346 units=km normamps=114.0
new line.52874590 phases=3 bus1=80442025001991B.1.2.3 bus2=80442035001991.1.2.3 r1=1.551 x1=0.49 length=0.034722 units=km normamps=114.0
new line.52874591 phases=3 bus1=80441245001991.1.2.3 bus2=80441195001991.1.2.3 r1=0.195 x1=0.4 length=0.048499 units=km normamps=419.0
new line.52874592 phases=3 bus1=80441265001991.1.2.3 bus2=80441245001991.1.2.3 r1=0.195 x1=0.4 length=0.027531 units=km normamps=419.0
new line.52874593 phases=3 bus1=80441275001991.1.2.3 bus2=80441265001991.1.2.3 r1=0.195 x1=0.4 length=0.033008 units=km normamps=419.0
new line.52874594 phases=3 bus1=80441285001991.1.2.3 bus2=80441275001991.1.2.3 r1=0.195 x1=0.4 length=0.034272 units=km normamps=419.0
new line.52874595 phases=3 bus1=80441295001991.1.2.3 bus2=80441285001991.1.2.3 r1=0.195 x1=0.4 length=0.030762 units=km normamps=419.0
new line.52874596 phases=3 bus1=80441305001991.1.2.3 bus2=80441295001991.1.2.3 r1=0.195 x1=0.4 length=0.038492 units=km normamps=419.0
new line.52874597 phases=3 bus1=80441315001991.1.2.3 bus2=80441305001991.1.2.3 r1=0.195 x1=0.4 length=0.033897 units=km normamps=419.0
new line.52874599 phases=3 bus1=80441385001991.1.2.3 bus2=80441315001991.1.2.3 r1=0.195 x1=0.4 length=0.01253 units=km normamps=419.0
new line.52874600 phases=3 bus1=80441395001991.1.2.3 bus2=80441385001991.1.2.3 r1=0.195 x1=0.4 length=0.032063 units=km normamps=419.0
new line.52874601 phases=3 bus1=80441405001991.1.2.3 bus2=80441395001991.1.2.3 r1=0.195 x1=0.4 length=0.030877 units=km normamps=419.0
new line.52874604 phases=3 bus1=80441435001991.1.2.3 bus2=80441445001991.1.2.3 r1=0.195 x1=0.4 length=0.028033 units=km normamps=419.0
new line.52874605 phases=3 bus1=80441445001991.1.2.3 bus2=80441455001991.1.2.3 r1=0.195 x1=0.4 length=0.029806 units=km normamps=419.0
new line.52874606 phases=3 bus1=80442175001991.1.2.3 bus2=80442165001991.1.2.3 r1=1.551 x1=0.49 length=0.008592 units=km normamps=114.0
new line.52874607 phases=3 bus1=80442185001991.1.2.3 bus2=80442195001991.1.2.3 r1=1.551 x1=0.49 length=0.011013 units=km normamps=114.0
new line.52874608 phases=3 bus1=80442175001991.1.2.3 bus2=80442185001991.1.2.3 r1=1.551 x1=0.49 length=0.008737 units=km normamps=114.0
new line.52874609 phases=3 bus1=80442195001991.1.2.3 bus2=80442205001991.1.2.3 r1=1.551 x1=0.49 length=0.010841 units=km normamps=114.0
new line.52874610 phases=3 bus1=80442045001991.1.2.3 bus2=80442055001991.1.2.3 r1=1.551 x1=0.49 length=0.018978 units=km normamps=114.0
new line.52874611 phases=3 bus1=80442055001991.1.2.3 bus2=80442185001991.1.2.3 r1=1.551 x1=0.49 length=0.013999 units=km normamps=114.0
new line.52874612 phases=3 bus1=80442185001991.1.2.3 bus2=80442065001991.1.2.3 r1=1.551 x1=0.49 length=0.009867 units=km normamps=114.0
new line.52874613 phases=3 bus1=80442395001991.1.2.3 bus2=80442035001991.1.2.3 r1=1.551 x1=0.49 length=0.036488 units=km normamps=114.0
new line.52874614 phases=3 bus1=80441505001991.1.2.3 bus2=80441455001991.1.2.3 r1=0.195 x1=0.4 length=0.055771 units=km normamps=419.0
new line.52874615 phases=3 bus1=80441515001991.1.2.3 bus2=80441505001991B.1.2.3 r1=0.975 x1=0.47 length=0.011753 units=km normamps=152.0
new line.52874616 phases=3 bus1=80441525001991.1.2.3 bus2=80441405001991.1.2.3 r1=0.195 x1=0.4 length=0.03742 units=km normamps=419.0
new line.52874617 phases=3 bus1=80441525001991B.1.2.3 bus2=80441535001991.1.2.3 r1=1.551 x1=0.49 length=0.030718 units=km normamps=114.0
new line.52874618 phases=3 bus1=80441545001991.1.2.3 bus2=80441535001991.1.2.3 r1=1.551 x1=0.49 length=0.035569 units=km normamps=114.0
new line.52874619 phases=3 bus1=80441565001991.1.2.3 bus2=80441545001991.1.2.3 r1=1.551 x1=0.49 length=0.044396 units=km normamps=114.0
new line.52874620 phases=3 bus1=80441575001991.1.2.3 bus2=80441565001991.1.2.3 r1=1.551 x1=0.49 length=0.033464 units=km normamps=114.0
new line.52874621 phases=3 bus1=80441505001991.1.2.3 bus2=88961965001991.1.2.3 r1=0.195 x1=0.4 length=0.015097 units=km normamps=419.0
new line.52874622 phases=3 bus1=80441705001991.1.2.3 bus2=80441525001991.1.2.3 r1=0.195 x1=0.4 length=0.024813 units=km normamps=419.0
new line.52874624 phases=3 bus1=80441725001991.1.2.3 bus2=80441515001991.1.2.3 r1=0.975 x1=0.47 length=0.039471 units=km normamps=152.0
new line.52874625 phases=3 bus1=80441735001991.1.2.3 bus2=80441725001991.1.2.3 r1=0.975 x1=0.47 length=0.033172 units=km normamps=152.0
new line.52874626 phases=3 bus1=80442405001991.1.2.3 bus2=80442395001991.1.2.3 r1=1.551 x1=0.49 length=0.034045 units=km normamps=114.0
new line.52874627 phases=3 bus1=80442415001991.1.2.3 bus2=80442405001991.1.2.3 r1=1.551 x1=0.49 length=0.035889 units=km normamps=114.0
new line.52874628 phases=3 bus1=80442555001991.1.2.3 bus2=80442545001991.1.2.3 r1=1.551 x1=0.49 length=0.039353 units=km normamps=114.0
new line.52874629 phases=3 bus1=80442565001991.1.2.3 bus2=80442555001991.1.2.3 r1=1.551 x1=0.49 length=0.034977 units=km normamps=114.0
new line.52874630 phases=3 bus1=80442575001991.1.2.3 bus2=80442565001991.1.2.3 r1=1.551 x1=0.49 length=0.011969 units=km normamps=114.0
new line.52874631 phases=3 bus1=80442585001991.1.2.3 bus2=80442575001991.1.2.3 r1=1.551 x1=0.49 length=0.014352 units=km normamps=114.0
new line.52874632 phases=3 bus1=80442595001991.1.2.3 bus2=80442585001991.1.2.3 r1=1.551 x1=0.49 length=0.025564 units=km normamps=114.0
new line.52874633 phases=3 bus1=80442605001991B.1.2.3 bus2=80442595001991.1.2.3 r1=1.551 x1=0.49 length=0.033308 units=km normamps=114.0
new line.52874634 phases=3 bus1=80442615001991.1.2.3 bus2=80442575001991.1.2.3 r1=1.551 x1=0.49 length=0.016158 units=km normamps=114.0
new line.52874635 phases=3 bus1=80445115001991.1.2.3 bus2=80445105001991.1.2.3 r1=0.195 x1=0.4 length=0.035883 units=km normamps=419.0
new line.52874636 phases=3 bus1=80445055001991.1.2.3 bus2=80445115001991.1.2.3 r1=0.195 x1=0.4 length=0.02967 units=km normamps=419.0
new line.52874637 phases=3 bus1=80447745001991.1.2.3 bus2=80439945001991.1.2.3 r1=0.188 x1=0.26 length=0.027685 units=km normamps=525.0
new line.52874638 phases=3 bus1=80447345001991.1.2.3 bus2=80447765001991.1.2.3 r1=1.551 x1=0.49 length=0.015873 units=km normamps=114.0
new line.52874639 phases=3 bus1=80447765001991.1.2.3 bus2=80447365001991.1.2.3 r1=1.551 x1=0.49 length=0.016518 units=km normamps=114.0
new line.52874640 phases=3 bus1=80447405001991.1.2.3 bus2=80447415001991.1.2.3 r1=1.551 x1=0.49 length=0.007003 units=km normamps=114.0
new line.52874642 phases=3 bus1=80447295001991.1.2.3 bus2=80447785001991.1.2.3 r1=0.613 x1=0.45 length=0.016355 units=km normamps=203.0
new line.52874644 phases=3 bus1=80446365001991.1.2.3 bus2=80446625001991.1.2.3 r1=0.195 x1=0.4 length=0.024066 units=km normamps=419.0
new line.52874645 phases=3 bus1=80446635001991.1.2.3 bus2=80446625001991.1.2.3 r1=0.195 x1=0.4 length=0.016145 units=km normamps=419.0
new line.52874646 phases=3 bus1=80446625001991.1.2.3 bus2=80446645001991.1.2.3 r1=0.195 x1=0.4 length=0.018659 units=km normamps=419.0
new line.52874647 phases=3 bus1=80444625001991B.1.2.3 bus2=80446985001991.1.2.3 r1=0.195 x1=0.4 length=0.033008 units=km normamps=419.0
new line.52874648 phases=3 bus1=80446995001991.1.2.3 bus2=80444635001991.1.2.3 r1=0.732 x1=0.31 length=0.035906 units=km normamps=225.0
new line.52874649 phases=3 bus1=80447005001991.1.2.3 bus2=80446995001991.1.2.3 r1=0.732 x1=0.31 length=0.009701 units=km normamps=225.0
new line.52874650 phases=3 bus1=80447065001991B.1.2.3 bus2=80447005001991.1.2.3 r1=0.732 x1=0.31 length=0.039461 units=km normamps=225.0
new line.52874651 phases=3 bus1=80447075001991.1.2.3 bus2=80447065001991.1.2.3 r1=2.389 x1=0.52 length=0.013719 units=km normamps=90.0
new line.52874652 phases=3 bus1=80446835001991.1.2.3 bus2=80447075001991.1.2.3 r1=2.389 x1=0.52 length=0.015201 units=km normamps=90.0
new line.52874653 phases=3 bus1=80446925001991.1.2.3 bus2=80447075001991.1.2.3 r1=0.613 x1=0.45 length=0.013643 units=km normamps=203.0
new line.52874654 phases=3 bus1=80447095001991.1.2.3 bus2=80446715001991.1.2.3 r1=0.195 x1=0.4 length=0.01673 units=km normamps=419.0
new line.52874655 phases=3 bus1=80447105001991.1.2.3 bus2=80447095001991.1.2.3 r1=0.195 x1=0.4 length=0.014617 units=km normamps=419.0
new line.52874656 phases=3 bus1=80447115001991.1.2.3 bus2=80447105001991.1.2.3 r1=0.195 x1=0.4 length=0.02237 units=km normamps=419.0
new line.52874657 phases=3 bus1=80447135001991.1.2.3 bus2=80447115001991.1.2.3 r1=0.195 x1=0.4 length=0.005717 units=km normamps=419.0
new line.52874658 phases=3 bus1=80447085001991.1.2.3 bus2=80447075001991.1.2.3 r1=0.613 x1=0.45 length=0.015372 units=km normamps=203.0
new line.52874659 phases=3 bus1=80447145001991.1.2.3 bus2=80447085001991B.1.2.3 r1=0.732 x1=0.31 length=0.022074 units=km normamps=225.0
new line.52874660 phases=3 bus1=80444405001991.1.2.3 bus2=80444415001991.1.2.3 r1=1.551 x1=0.49 length=0.010574 units=km normamps=114.0
new line.52874661 phases=3 bus1=80444425001991.1.2.3 bus2=80444365001991B.1.2.3 r1=1.551 x1=0.49 length=0.013907 units=km normamps=114.0
new line.52874662 phases=3 bus1=80444435001991.1.2.3 bus2=80444425001991.1.2.3 r1=1.551 x1=0.49 length=0.014482 units=km normamps=114.0
new line.52874663 phases=3 bus1=80444455001991.1.2.3 bus2=80444445001991.1.2.3 r1=1.551 x1=0.49 length=0.012656 units=km normamps=114.0
new line.52874664 phases=3 bus1=80444465001991.1.2.3 bus2=80444445001991.1.2.3 r1=1.551 x1=0.49 length=0.008431 units=km normamps=114.0
new line.52874665 phases=3 bus1=80444475001991.1.2.3 bus2=80444465001991.1.2.3 r1=1.551 x1=0.49 length=0.011799 units=km normamps=114.0
new line.52874666 phases=3 bus1=80444485001991.1.2.3 bus2=80444465001991.1.2.3 r1=1.551 x1=0.49 length=0.010674 units=km normamps=114.0
new line.52874667 phases=3 bus1=80444495001991.1.2.3 bus2=80444485001991.1.2.3 r1=1.551 x1=0.49 length=0.009822 units=km normamps=114.0
new line.52874668 phases=3 bus1=80444505001991.1.2.3 bus2=80444485001991.1.2.3 r1=1.551 x1=0.49 length=0.012933 units=km normamps=114.0
new line.52874670 phases=3 bus1=80444545001991B.1.2.3 bus2=80445885001991.1.2.3 r1=0.732 x1=0.31 length=0.017141 units=km normamps=225.0
new line.52874671 phases=3 bus1=80442625001991.1.2.3 bus2=80442615001991.1.2.3 r1=1.551 x1=0.49 length=0.031909 units=km normamps=114.0
new line.52874672 phases=3 bus1=80442575001991.1.2.3 bus2=80442645001991.1.2.3 r1=1.551 x1=0.49 length=0.027136 units=km normamps=114.0
new line.52874673 phases=3 bus1=80444875001991.1.2.3 bus2=80444865001991.1.2.3 r1=0.195 x1=0.4 length=0.052827 units=km normamps=419.0
new line.52874674 phases=3 bus1=80444895001991.1.2.3 bus2=95314565001991.1.2.3 r1=0.195 x1=0.4 length=0.015811 units=km normamps=419.0
new line.52874675 phases=3 bus1=80445025001991.1.2.3 bus2=80444895001991.1.2.3 r1=0.195 x1=0.4 length=0.027814 units=km normamps=419.0
new line.52874676 phases=3 bus1=80445015001991.1.2.3 bus2=95436765001991.1.2.3 r1=0.195 x1=0.4 length=0.008389 units=km normamps=419.0
new line.52874677 phases=3 bus1=80444105001991.1.2.3 bus2=80445015001991.1.2.3 r1=0.188 x1=0.26 length=0.020166 units=km normamps=525.0
new line.52874678 phases=3 bus1=80445035001991.1.2.3 bus2=80445045001991.1.2.3 r1=0.195 x1=0.4 length=0.034601 units=km normamps=419.0
new line.52874679 phases=3 bus1=80444865001991.1.2.3 bus2=80445035001991.1.2.3 r1=0.195 x1=0.4 length=0.027813 units=km normamps=419.0
new line.52874680 phases=3 bus1=80445045001991.1.2.3 bus2=80445055001991.1.2.3 r1=0.195 x1=0.4 length=0.038482 units=km normamps=419.0
new line.52874681 phases=3 bus1=80445095001991.1.2.3 bus2=80441435001991.1.2.3 r1=0.195 x1=0.4 length=0.030618 units=km normamps=419.0
new line.52874682 phases=3 bus1=80445105001991.1.2.3 bus2=80445095001991.1.2.3 r1=0.195 x1=0.4 length=0.034458 units=km normamps=419.0
new line.52874683 phases=3 bus1=80446645001991.1.2.3 bus2=80446655001991B.1.2.3 r1=0.195 x1=0.4 length=0.020854 units=km normamps=419.0
new line.52874684 phases=3 bus1=80446655001991.1.2.3 bus2=80446665001991.1.2.3 r1=0.195 x1=0.4 length=0.027531 units=km normamps=419.0
new line.52874685 phases=3 bus1=80446675001991.1.2.3 bus2=80446705001991.1.2.3 r1=0.195 x1=0.4 length=0.012648 units=km normamps=419.0
new line.52874686 phases=3 bus1=80446705001991.1.2.3 bus2=80446685001991.1.2.3 r1=0.195 x1=0.4 length=0.013091 units=km normamps=419.0
new line.52874687 phases=3 bus1=80446665001991.1.2.3 bus2=80446705001991.1.2.3 r1=0.195 x1=0.4 length=0.007444 units=km normamps=419.0
new line.52874688 phases=3 bus1=80446705001991.1.2.3 bus2=80446735001991.1.2.3 r1=0.195 x1=0.4 length=0.014352 units=km normamps=419.0
new line.52874689 phases=3 bus1=80446735001991.1.2.3 bus2=80446715001991.1.2.3 r1=0.195 x1=0.4 length=0.013746 units=km normamps=419.0
new line.52874690 phases=3 bus1=80446735001991.1.2.3 bus2=80446695001991.1.2.3 r1=1.551 x1=0.49 length=0.018118 units=km normamps=114.0
new line.52874691 phases=3 bus1=80446725001991.1.2.3 bus2=80446735001991.1.2.3 r1=1.551 x1=0.49 length=0.013908 units=km normamps=114.0
new line.52874692 phases=3 bus1=80446745001991.1.2.3 bus2=80446725001991B.1.2.3 r1=1.551 x1=0.49 length=0.013908 units=km normamps=114.0
new line.52874693 phases=3 bus1=80446675001991B.1.2.3 bus2=80446755001991.1.2.3 r1=0.195 x1=0.4 length=0.031501 units=km normamps=419.0
new line.52874694 phases=3 bus1=80446765001991.1.2.3 bus2=80446745001991.1.2.3 r1=1.551 x1=0.49 length=0.012648 units=km normamps=114.0
new line.52874695 phases=3 bus1=80447155001991.1.2.3 bus2=80447145001991.1.2.3 r1=0.732 x1=0.31 length=0.016168 units=km normamps=225.0
new line.52874696 phases=3 bus1=80447165001991.1.2.3 bus2=80447155001991.1.2.3 r1=0.732 x1=0.31 length=0.021658 units=km normamps=225.0
new line.52874697 phases=3 bus1=80447175001991.1.2.3 bus2=80447165001991.1.2.3 r1=0.732 x1=0.31 length=0.009581 units=km normamps=225.0
new line.52874698 phases=3 bus1=80447165001991.1.2.3 bus2=80447185001991.1.2.3 r1=0.732 x1=0.31 length=0.015098 units=km normamps=225.0
new line.52874699 phases=3 bus1=80447195001991.1.2.3 bus2=80447185001991.1.2.3 r1=0.732 x1=0.31 length=0.00746 units=km normamps=225.0
new line.52874701 phases=3 bus1=80447245001991.1.2.3 bus2=80447235001991.1.2.3 r1=0.613 x1=0.45 length=0.007238 units=km normamps=203.0
new line.52874703 phases=3 bus1=80447265001991.1.2.3 bus2=80447255001991.1.2.3 r1=0.486 x1=0.44 length=0.009051 units=km normamps=235.0
new line.52874704 phases=3 bus1=80447275001991.1.2.3 bus2=80447255001991.1.2.3 r1=0.613 x1=0.45 length=0.011963 units=km normamps=203.0
new line.52874705 phases=3 bus1=80447285001991.1.2.3 bus2=80447275001991.1.2.3 r1=0.613 x1=0.45 length=0.016311 units=km normamps=203.0
new line.52874706 phases=3 bus1=80447295001991.1.2.3 bus2=80447285001991.1.2.3 r1=0.613 x1=0.45 length=0.01448 units=km normamps=203.0
new line.52874707 phases=3 bus1=80447305001991.1.2.3 bus2=80447295001991.1.2.3 r1=0.613 x1=0.45 length=0.014413 units=km normamps=203.0
new line.52874708 phases=3 bus1=80447315001991.1.2.3 bus2=80447305001991B.1.2.3 r1=0.975 x1=0.47 length=0.010276 units=km normamps=152.0
new line.52874709 phases=3 bus1=80447325001991.1.2.3 bus2=80447315001991.1.2.3 r1=0.975 x1=0.47 length=0.006994 units=km normamps=152.0
...

! 3. Chaves Seccionadoras MT
new line.SC_5270602 phases=3 bus1=80443805001991.1.2.3 bus2=80443805001991B.1.2.3 switch=y r1=1e-4 x1=1e-4 length=0.001 units=km
new line.SC_5270603 phases=3 bus1=80443705001991.1.2.3 bus2=80443705001991B.1.2.3 switch=y r1=1e-4 x1=1e-4 length=0.001 units=km
new line.SC_5270604 phases=3 bus1=80445705001991.1.2.3 bus2=80445705001991B.1.2.3 switch=y r1=1e-4 x1=1e-4 length=0.001 units=km
new line.SC_5270605 phases=3 bus1=80445735001991.1.2.3 bus2=80445735001991B.1.2.3 switch=y r1=1e-4 x1=1e-4 length=0.001 units=km
new line.SC_5270606 phases=3 bus1=80446185001991.1.2.3 bus2=80446185001991B.1.2.3 switch=y r1=1e-4 x1=1e-4 length=0.001 units=km
new line.SC_5270607 phases=3 bus1=80446725001991.1.2.3 bus2=80446725001991B.1.2.3 switch=y r1=1e-4 x1=1e-4 length=0.001 units=km
new line.SC_5270608 phases=3 bus1=80446675001991.1.2.3 bus2=80446675001991B.1.2.3 switch=y r1=1e-4 x1=1e-4 length=0.001 units=km
new line.SC_5270609 phases=3 bus1=80446685001991.1.2.3 bus2=80446685001991B.1.2.3 switch=y r1=1e-4 x1=1e-4 length=0.001 units=km
new line.SC_5270611 phases=3 bus1=80446655001991.1.2.3 bus2=80446655001991B.1.2.3 switch=y r1=1e-4 x1=1e-4 length=0.001 units=km
new line.SC_5270612 phases=3 bus1=80444625001991.1.2.3 bus2=80444625001991B.1.2.3 switch=y r1=1e-4 x1=1e-4 length=0.001 units=km
new line.SC_5270613 phases=3 bus1=80444545001991.1.2.3 bus2=80444545001991B.1.2.3 switch=y r1=1e-4 x1=1e-4 length=0.001 units=km
open line.SC_5270613 1
new line.SC_5270615 phases=3 bus1=80445625001991.1.2.3 bus2=80445625001991B.1.2.3 switch=y r1=1e-4 x1=1e-4 length=0.001 units=km
new line.SC_5270618 phases=3 bus1=80445235001991.1.2.3 bus2=80445235001991B.1.2.3 switch=y r1=1e-4 x1=1e-4 length=0.001 units=km
new line.SC_5270619 phases=3 bus1=80446785001991.1.2.3 bus2=80446785001991B.1.2.3 switch=y r1=1e-4 x1=1e-4 length=0.001 units=km
open line.SC_5270619 1
new line.SC_5270621 phases=3 bus1=80447545001991.1.2.3 bus2=80447545001991B.1.2.3 switch=y r1=1e-4 x1=1e-4 length=0.001 units=km
new line.SC_5270668 phases=3 bus1=80442605001991.1.2.3 bus2=80442605001991B.1.2.3 switch=y r1=1e-4 x1=1e-4 length=0.001 units=km
new line.SC_5270669 phases=3 bus1=80440675001991.1.2.3 bus2=80440675001991B.1.2.3 switch=y r1=1e-4 x1=1e-4 length=0.001 units=km
new line.SC_5270670 phases=3 bus1=80443065001991.1.2.3 bus2=80443065001991B.1.2.3 switch=y r1=1e-4 x1=1e-4 length=0.001 units=km
new line.SC_5270671 phases=3 bus1=80443725001991.1.2.3 bus2=80443725001991B.1.2.3 switch=y r1=1e-4 x1=1e-4 length=0.001 units=km
new line.SC_5270672 phases=3 bus1=80443775001991.1.2.3 bus2=80443775001991B.1.2.3 switch=y r1=1e-4 x1=1e-4 length=0.001 units=km
new line.SC_5270673 phases=3 bus1=80441195001991.1.2.3 bus2=80441195001991B.1.2.3 switch=y r1=1e-4 x1=1e-4 length=0.001 units=km
new line.SC_5270675 phases=3 bus1=80441505001991.1.2.3 bus2=80441505001991B.1.2.3 switch=y r1=1e-4 x1=1e-4 length=0.001 units=km
new line.SC_5270676 phases=3 bus1=80441525001991.1.2.3 bus2=80441525001991B.1.2.3 switch=y r1=1e-4 x1=1e-4 length=0.001 units=km
new line.SC_5270677 phases=3 bus1=80442015001991.1.2.3 bus2=80442015001991B.1.2.3 switch=y r1=1e-4 x1=1e-4 length=0.001 units=km
new line.SC_5270694 phases=3 bus1=80442025001991.1.2.3 bus2=80442025001991B.1.2.3 switch=y r1=1e-4 x1=1e-4 length=0.001 units=km
new line.SC_5270695 phases=3 bus1=80445485001991.1.2.3 bus2=80445485001991B.1.2.3 switch=y r1=1e-4 x1=1e-4 length=0.001 units=km
new line.SC_5270696 phases=3 bus1=80446285001991.1.2.3 bus2=80446285001991B.1.2.3 switch=y r1=1e-4 x1=1e-4 length=0.001 units=km
new line.SC_5270697 phases=3 bus1=80446305001991.1.2.3 bus2=80446305001991B.1.2.3 switch=y r1=1e-4 x1=1e-4 length=0.001 units=km
new line.SC_5270698 phases=3 bus1=80446395001991.1.2.3 bus2=80446395001991B.1.2.3 switch=y r1=1e-4 x1=1e-4 length=0.001 units=km
new line.SC_5270699 phases=3 bus1=80446055001991.1.2.3 bus2=80446055001991B.1.2.3 switch=y r1=1e-4 x1=1e-4 length=0.001 units=km
new line.SC_5270701 phases=3 bus1=80444365001991.1.2.3 bus2=80444365001991B.1.2.3 switch=y r1=1e-4 x1=1e-4 length=0.001 units=km
new line.SC_5270702 phases=3 bus1=80445715001991.1.2.3 bus2=80445715001991B.1.2.3 switch=y r1=1e-4 x1=1e-4 length=0.001 units=km
new line.SC_5270703 phases=3 bus1=80446165001991.1.2.3 bus2=80446165001991B.1.2.3 switch=y r1=1e-4 x1=1e-4 length=0.001 units=km
new line.SC_5270704 phases=3 bus1=80446325001991.1.2.3 bus2=80446325001991B.1.2.3 switch=y r1=1e-4 x1=1e-4 length=0.001 units=km
new line.SC_5270705 phases=3 bus1=80444325001991.1.2.3 bus2=80444325001991B.1.2.3 switch=y r1=1e-4 x1=1e-4 length=0.001 units=km
new line.SC_5270706 phases=3 bus1=80446935001991.1.2.3 bus2=80446935001991B.1.2.3 switch=y r1=1e-4 x1=1e-4 length=0.001 units=km
new line.SC_5270708 phases=3 bus1=80445615001991.1.2.3 bus2=80445615001991B.1.2.3 switch=y r1=1e-4 x1=1e-4 length=0.001 units=km
new line.SC_5270709 phases=3 bus1=80446695001991.1.2.3 bus2=80446695001991B.1.2.3 switch=y r1=1e-4 x1=1e-4 length=0.001 units=km
new line.SC_5270710 phases=3 bus1=80447065001991.1.2.3 bus2=80447065001991B.1.2.3 switch=y r1=1e-4 x1=1e-4 length=0.001 units=km
new line.SC_5270711 phases=3 bus1=80447305001991.1.2.3 bus2=80447305001991B.1.2.3 switch=y r1=1e-4 x1=1e-4 length=0.001 units=km
new line.SC_5270712 phases=3 bus1=80447085001991.1.2.3 bus2=80447085001991B.1.2.3 switch=y r1=1e-4 x1=1e-4 length=0.001 units=km
new line.SC_5270713 phases=3 bus1=80447335001991.1.2.3 bus2=80447335001991B.1.2.3 switch=y r1=1e-4 x1=1e-4 length=0.001 units=km
new line.SC_5270714 phases=3 bus1=80447455001991.1.2.3 bus2=80447455001991B.1.2.3 switch=y r1=1e-4 x1=1e-4 length=0.001 units=km
new line.SC_5270715 phases=3 bus1=80447575001991.1.2.3 bus2=80447575001991B.1.2.3 switch=y r1=1e-4 x1=1e-4 length=0.001 units=km
new line.SC_5270716 phases=3 bus1=80446575001991.1.2.3 bus2=80446575001991B.1.2.3 switch=y r1=1e-4 x1=1e-4 length=0.001 units=km
new line.SC_5271069 phases=3 bus1=80476575001991.1.2.3 bus2=80476575001991B.1.2.3 switch=y r1=1e-4 x1=1e-4 length=0.001 units=km
new line.SC_5271074 phases=3 bus1=80477045001991.1.2.3 bus2=80477045001991B.1.2.3 switch=y r1=1e-4 x1=1e-4 length=0.001 units=km
new line.SC_5271075 phases=3 bus1=80476725001991.1.2.3 bus2=80476725001991B.1.2.3 switch=y r1=1e-4 x1=1e-4 length=0.001 units=km
new line.SC_5271076 phases=3 bus1=80476965001991.1.2.3 bus2=80476965001991B.1.2.3 switch=y r1=1e-4 x1=1e-4 length=0.001 units=km
new line.SC_5271147 phases=3 bus1=80475805001991.1.2.3 bus2=80475805001991B.1.2.3 switch=y r1=1e-4 x1=1e-4 length=0.001 units=km
new line.SC_5271148 phases=3 bus1=80475865001991.1.2.3 bus2=80475865001991B.1.2.3 switch=y r1=1e-4 x1=1e-4 length=0.001 units=km
new line.SC_5271149 phases=3 bus1=80475375001991.1.2.3 bus2=80475375001991B.1.2.3 switch=y r1=1e-4 x1=1e-4 length=0.001 units=km
new line.SC_5271157 phases=3 bus1=80475465001991.1.2.3 bus2=80475465001991B.1.2.3 switch=y r1=1e-4 x1=1e-4 length=0.001 units=km
new line.SC_5271160 phases=3 bus1=80476755001991.1.2.3 bus2=80476755001991B.1.2.3 switch=y r1=1e-4 x1=1e-4 length=0.001 units=km
new line.SC_5271161 phases=3 bus1=80477035001991.1.2.3 bus2=80477035001991B.1.2.3 switch=y r1=1e-4 x1=1e-4 length=0.001 units=km
new line.SC_5271164 phases=3 bus1=80476945001991.1.2.3 bus2=80476945001991B.1.2.3 switch=y r1=1e-4 x1=1e-4 length=0.001 units=km
new line.SC_5271165 phases=3 bus1=80477055001991.1.2.3 bus2=80477055001991B.1.2.3 switch=y r1=1e-4 x1=1e-4 length=0.001 units=km
new line.SC_5271166 phases=3 bus1=80478355001991.1.2.3 bus2=80478355001991B.1.2.3 switch=y r1=1e-4 x1=1e-4 length=0.001 units=km
new line.SC_5271167 phases=3 bus1=80478395001991.1.2.3 bus2=80478395001991B.1.2.3 switch=y r1=1e-4 x1=1e-4 length=0.001 units=km
new line.SC_5272075 phases=3 bus1=80442505001991.1.2.3 bus2=80442505001991B.1.2.3 switch=y r1=1e-4 x1=1e-4 length=0.001 units=km
new line.SC_5305380 phases=3 bus1=80478855001991.1.2.3 bus2=80478855001991B.1.2.3 switch=y r1=1e-4 x1=1e-4 length=0.001 units=km
new line.SC_5328456 phases=3 bus1=80477535001991.1.2.3 bus2=80477535001991B.1.2.3 switch=y r1=1e-4 x1=1e-4 length=0.001 units=km
new line.SC_5583635 phases=3 bus1=91072215001991.1.2.3 bus2=91072215001991B.1.2.3 switch=y r1=1e-4 x1=1e-4 length=0.001 units=km
new line.SC_5584651 phases=3 bus1=80445645001991.1.2.3 bus2=80445645001991B.1.2.3 switch=y r1=1e-4 x1=1e-4 length=0.001 units=km
new line.SC_5584653 phases=3 bus1=91097145001991.1.2.3 bus2=91097145001991B.1.2.3 switch=y r1=1e-4 x1=1e-4 length=0.001 units=km
new line.SC_5584654 phases=3 bus1=91097165001991.1.2.3 bus2=91097165001991B.1.2.3 switch=y r1=1e-4 x1=1e-4 length=0.001 units=km
open line.SC_5584654 1
new line.SC_5584655 phases=3 bus1=91097155001991.1.2.3 bus2=91097155001991B.1.2.3 switch=y r1=1e-4 x1=1e-4 length=0.001 units=km
new line.SC_5587815 phases=3 bus1=80446525001991.1.2.3 bus2=80446525001991B.1.2.3 switch=y r1=1e-4 x1=1e-4 length=0.001 units=km
open line.SC_5587815 1
new line.SC_5591744 phases=3 bus1=91130795001991.1.2.3 bus2=91130795001991B.1.2.3 switch=y r1=1e-4 x1=1e-4 length=0.001 units=km
new line.SC_5640739 phases=3 bus1=92861145001991.1.2.3 bus2=92861145001991B.1.2.3 switch=y r1=1e-4 x1=1e-4 length=0.001 units=km
open line.SC_5640739 1
new line.SC_5640740 phases=3 bus1=92861175001991.1.2.3 bus2=92861175001991B.1.2.3 switch=y r1=1e-4 x1=1e-4 length=0.001 units=km
open line.SC_5640740 1
new line.SC_5682949 phases=3 bus1=94192545001991.1.2.3 bus2=94192545001991B.1.2.3 switch=y r1=1e-4 x1=1e-4 length=0.001 units=km
new line.SC_5682950 phases=3 bus1=94192595001991.1.2.3 bus2=94192595001991B.1.2.3 switch=y r1=1e-4 x1=1e-4 length=0.001 units=km
open line.SC_5682950 1
new line.SC_5701294 phases=3 bus1=94545905001991.1.2.3 bus2=94545905001991B.1.2.3 switch=y r1=1e-4 x1=1e-4 length=0.001 units=km
open line.SC_5701294 1
new line.SC_5701309 phases=3 bus1=94545855001991.1.2.3 bus2=94545855001991B.1.2.3 switch=y r1=1e-4 x1=1e-4 length=0.001 units=km
new line.SC_5709161 phases=3 bus1=94724615001991.1.2.3 bus2=94724615001991B.1.2.3 switch=y r1=1e-4 x1=1e-4 length=0.001 units=km
new line.SC_5709162 phases=3 bus1=94724665001991.1.2.3 bus2=94724665001991B.1.2.3 switch=y r1=1e-4 x1=1e-4 length=0.001 units=km
open line.SC_5709162 1
new line.SC_5710188 phases=3 bus1=94768535001991.1.2.3 bus2=94768535001991B.1.2.3 switch=y r1=1e-4 x1=1e-4 length=0.001 units=km
new line.SC_5710202 phases=3 bus1=94768545001991.1.2.3 bus2=94768545001991B.1.2.3 switch=y r1=1e-4 x1=1e-4 length=0.001 units=km
open line.SC_5710202 1
new line.SC_5710400 phases=3 bus1=94775745001991.1.2.3 bus2=94775745001991B.1.2.3 switch=y r1=1e-4 x1=1e-4 length=0.001 units=km
open line.SC_5710400 1
new line.SC_5710401 phases=3 bus1=94775715001991.1.2.3 bus2=94775715001991B.1.2.3 switch=y r1=1e-4 x1=1e-4 length=0.001 units=km
open line.SC_5710401 1
new line.SC_5710495 phases=3 bus1=94777525001991.1.2.3 bus2=94777525001991B.1.2.3 switch=y r1=1e-4 x1=1e-4 length=0.001 units=km
open line.SC_5710495 1
new line.SC_5710496 phases=3 bus1=94777585001991.1.2.3 bus2=94777585001991B.1.2.3 switch=y r1=1e-4 x1=1e-4 length=0.001 units=km
new line.SC_5710497 phases=3 bus1=94777825001991.1.2.3 bus2=94777825001991B.1.2.3 switch=y r1=1e-4 x1=1e-4 length=0.001 units=km
open line.SC_5710497 1
new line.SC_5710510 phases=3 bus1=94777555001991.1.2.3 bus2=94777555001991B.1.2.3 switch=y r1=1e-4 x1=1e-4 length=0.001 units=km
open line.SC_5710510 1
new line.SC_5714573 phases=3 bus1=94918435001991.1.2.3 bus2=94918435001991B.1.2.3 switch=y r1=1e-4 x1=1e-4 length=0.001 units=km
open line.SC_5714573 1
new line.SC_5714574 phases=3 bus1=94918475001991.1.2.3 bus2=94918475001991B.1.2.3 switch=y r1=1e-4 x1=1e-4 length=0.001 units=km
open line.SC_5714574 1
new line.SC_5717830 phases=3 bus1=95001225001991.1.2.3 bus2=95001225001991B.1.2.3 switch=y r1=1e-4 x1=1e-4 length=0.001 units=km
open line.SC_5717830 1
new line.SC_5723432 phases=3 bus1=95314565001991.1.2.3 bus2=95314565001991B.1.2.3 switch=y r1=1e-4 x1=1e-4 length=0.001 units=km
new line.SC_5756254 phases=3 bus1=96894915001991.1.2.3 bus2=96894915001991B.1.2.3 switch=y r1=1e-4 x1=1e-4 length=0.001 units=km
new line.SC_5756255 phases=3 bus1=96894935001991.1.2.3 bus2=96894935001991B.1.2.3 switch=y r1=1e-4 x1=1e-4 length=0.001 units=km
open line.SC_5756255 1
new line.SC_5768493 phases=3 bus1=80474865001991.1.2.3 bus2=80474865001991B.1.2.3 switch=y r1=1e-4 x1=1e-4 length=0.001 units=km
open line.SC_5768493 1
new line.SC_5768649 phases=3 bus1=80476035001991.1.2.3 bus2=80476035001991B.1.2.3 switch=y r1=1e-4 x1=1e-4 length=0.001 units=km
new line.SC_5779535 phases=3 bus1=80477915001991.1.2.3 bus2=80477915001991B.1.2.3 switch=y r1=1e-4 x1=1e-4 length=0.001 units=km
open line.SC_5779535 1
new line.SC_5804327 phases=3 bus1=80443055001991.1.2.3 bus2=80443055001991B.1.2.3 switch=y r1=1e-4 x1=1e-4 length=0.001 units=km
new line.SC_5804328 phases=3 bus1=80443105001991.1.2.3 bus2=80443105001991B.1.2.3 switch=y r1=1e-4 x1=1e-4 length=0.001 units=km
new line.SC_SA0002810 phases=3 bus1=SA0002810.1.2.3 bus2=SA0002810B.1.2.3 switch=y r1=1e-4 x1=1e-4 length=0.001 units=km
new line.SC_SA0002809 phases=3 bus1=SA0002809.1.2.3 bus2=SA0002809B.1.2.3 switch=y r1=1e-4 x1=1e-4 length=0.001 units=km
new line.SC_DA0000423 phases=3 bus1=I888888103455001991.1.2.3 bus2=I888888103455001991B.1.2.3 switch=y r1=1e-4 x1=1e-4 length=0.001 units=km

! 5. Transformadores MT/BT de Distribuicao
new transformer.UNTRMT_5270628 phases=3 windings=2 %r=1.46 xhl=3.18 kva=112.0
~ wdg=1 bus=80445835001991.1.2.3 conn=delta kv=13.8
~ wdg=2 bus=80445835270628.1.2.3.0 conn=wye kv=0.38

new transformer.UNTRMT_5270631 phases=3 windings=2 %r=1.39 xhl=3.21 kva=112.0
~ wdg=1 bus=80446315001991.1.2.3 conn=delta kv=13.8
~ wdg=2 bus=80446315270631.1.2.3.0 conn=wye kv=0.38

new transformer.UNTRMT_5270632 phases=3 windings=2 %r=1.46 xhl=3.18 kva=112.0
~ wdg=1 bus=80446375001991.1.2.3 conn=delta kv=13.8
~ wdg=2 bus=80446375270632.1.2.3.0 conn=wye kv=0.38

new transformer.UNTRMT_5270633 phases=3 windings=2 %r=1.46 xhl=3.18 kva=112.0
~ wdg=1 bus=80445915001991.1.2.3 conn=delta kv=13.8
~ wdg=2 bus=80445915270633.1.2.3.0 conn=wye kv=0.38

new transformer.UNTRMT_5270635 phases=3 windings=2 %r=1.3 xhl=4.31 kva=112.0
~ wdg=1 bus=80446075001991.1.2.3 conn=delta kv=13.8
~ wdg=2 bus=80446075270635.1.2.3.0 conn=wye kv=0.38

new transformer.UNTRMT_5270636 phases=3 windings=2 %r=1.46 xhl=3.18 kva=112.0
~ wdg=1 bus=80446135001991.1.2.3 conn=delta kv=13.8
~ wdg=2 bus=80446135270636.1.2.3.0 conn=wye kv=0.38

new transformer.UNTRMT_5270637 phases=3 windings=2 %r=1.07 xhl=5.9 kva=112.0
~ wdg=1 bus=80446415001991.1.2.3 conn=delta kv=13.8
~ wdg=2 bus=80446415270637.1.2.3.0 conn=wye kv=0.38

new transformer.UNTRMT_5270638 phases=3 windings=2 %r=1.46 xhl=3.18 kva=112.0
~ wdg=1 bus=80446845001991.1.2.3 conn=delta kv=13.8
~ wdg=2 bus=80446845270638.1.2.3.0 conn=wye kv=0.38

new transformer.UNTRMT_5270639 phases=3 windings=2 %r=1.68 xhl=3.07 kva=45.0
~ wdg=1 bus=80446875001991.1.2.3 conn=delta kv=13.8
~ wdg=2 bus=80446875270639.1.2.3.0 conn=wye kv=0.38

new transformer.UNTRMT_5270642 phases=3 windings=2 %r=1.39 xhl=3.21 kva=150.0
~ wdg=1 bus=80446465001991.1.2.3 conn=delta kv=13.8
~ wdg=2 bus=80446465270642.1.2.3.0 conn=wye kv=0.38

new transformer.UNTRMT_5270645 phases=3 windings=2 %r=1.39 xhl=3.21 kva=150.0
~ wdg=1 bus=80444435001991.1.2.3 conn=delta kv=13.8
~ wdg=2 bus=80444435270645.1.2.3.0 conn=wye kv=0.38

new transformer.UNTRMT_5270646 phases=3 windings=2 %r=1.39 xhl=3.21 kva=150.0
~ wdg=1 bus=80444455001991.1.2.3 conn=delta kv=13.8
~ wdg=2 bus=80444455270646.1.2.3.0 conn=wye kv=0.38

new transformer.UNTRMT_5270647 phases=3 windings=2 %r=1.46 xhl=3.18 kva=112.0
~ wdg=1 bus=80444475001991.1.2.3 conn=delta kv=13.8
~ wdg=2 bus=80444475270647.1.2.3.0 conn=wye kv=0.38

new transformer.UNTRMT_5270648 phases=3 windings=2 %r=1.25 xhl=4.32 kva=112.0
~ wdg=1 bus=80444495001991.1.2.3 conn=delta kv=13.8
~ wdg=2 bus=80444495270648.1.2.3.0 conn=wye kv=0.38

new transformer.UNTRMT_5270649 phases=3 windings=2 %r=1.55 xhl=3.14 kva=75.0
~ wdg=1 bus=80447785001991.1.2.3 conn=delta kv=13.8
~ wdg=2 bus=80447785270649.1.2.3.0 conn=wye kv=0.38

new transformer.UNTRMT_5270651 phases=3 windings=2 %r=1.3 xhl=4.31 kva=225.0
~ wdg=1 bus=80445245001991.1.2.3 conn=delta kv=13.8
~ wdg=2 bus=80445245270651.1.2.3.0 conn=wye kv=0.38

new transformer.UNTRMT_5270654 phases=3 windings=2 %r=1.55 xhl=3.14 kva=75.0
~ wdg=1 bus=80447135001991.1.2.3 conn=delta kv=13.8
~ wdg=2 bus=80447135270654.1.2.3.0 conn=wye kv=0.38

new transformer.UNTRMT_5270655 phases=3 windings=2 %r=1.39 xhl=3.21 kva=150.0
~ wdg=1 bus=80447195001991.1.2.3 conn=delta kv=13.8
~ wdg=2 bus=80447195270655.1.2.3.0 conn=wye kv=0.38

new transformer.UNTRMT_5270656 phases=3 windings=2 %r=1.3 xhl=4.31 kva=450.0
~ wdg=1 bus=80447325001991.1.2.3 conn=delta kv=13.8
~ wdg=2 bus=80447325270656.1.2.3.0 conn=wye kv=0.38

new transformer.UNTRMT_5270656_2 phases=3 windings=2 %r=1.3 xhl=4.31 kva=450.0
~ wdg=1 bus=80447325001991.1.2.3 conn=delta kv=13.8
~ wdg=2 bus=80447325270656_2.1.2.3.0 conn=wye kv=0.38

new transformer.UNTRMT_5270662 phases=3 windings=2 %r=1.46 xhl=3.18 kva=112.0
~ wdg=1 bus=80447525001991.1.2.3 conn=delta kv=13.8
~ wdg=2 bus=80447525270662.1.2.3.0 conn=wye kv=0.38

new transformer.UNTRMT_5270664 phases=3 windings=2 %r=1.3 xhl=4.31 kva=225.0
~ wdg=1 bus=80447595001991.1.2.3 conn=delta kv=13.8
~ wdg=2 bus=80447595270664.1.2.3.0 conn=wye kv=0.38

new transformer.UNTRMT_5270666 phases=3 windings=2 %r=1.39 xhl=3.21 kva=112.0
~ wdg=1 bus=80447645001991.1.2.3 conn=delta kv=13.8
~ wdg=2 bus=80447645270666-282.1.2.3.0 conn=wye kv=0.38

new transformer.UNTRMT_5270678 phases=3 windings=2 %r=1.46 xhl=3.18 kva=112.0
~ wdg=1 bus=80445325001991.1.2.3 conn=delta kv=13.8
~ wdg=2 bus=80445325270678.1.2.3.0 conn=wye kv=0.38

new transformer.UNTRMT_5270679 phases=3 windings=2 %r=1.46 xhl=3.18 kva=112.0
~ wdg=1 bus=80445355001991.1.2.3 conn=delta kv=13.8
~ wdg=2 bus=80445355270679.1.2.3.0 conn=wye kv=0.38

new transformer.UNTRMT_5270680 phases=3 windings=2 %r=1.46 xhl=3.18 kva=112.0
~ wdg=1 bus=80445375001991.1.2.3 conn=delta kv=13.8
~ wdg=2 bus=80445375270680.1.2.3.0 conn=wye kv=0.38

new transformer.UNTRMT_5270681 phases=3 windings=2 %r=1.68 xhl=3.07 kva=45.0
~ wdg=1 bus=80447755001991.1.2.3 conn=delta kv=13.8
~ wdg=2 bus=80447755270681.1.2.3.0 conn=wye kv=0.38

new transformer.UNTRMT_5270682 phases=3 windings=2 %r=1.55 xhl=3.14 kva=75.0
~ wdg=1 bus=80446995001991.1.2.3 conn=delta kv=13.8
~ wdg=2 bus=80446995270682.1.2.3.0 conn=wye kv=0.38

new transformer.UNTRMT_5270683 phases=3 windings=2 %r=1.46 xhl=3.18 kva=112.0
~ wdg=1 bus=80447105001991.1.2.3 conn=delta kv=13.8
~ wdg=2 bus=80447105270683.1.2.3.0 conn=wye kv=0.38

new transformer.UNTRMT_5270685 phases=3 windings=2 %r=1.46 xhl=3.18 kva=112.0
~ wdg=1 bus=80447265001991.1.2.3 conn=delta kv=13.8
~ wdg=2 bus=80447265270685.1.2.3.0 conn=wye kv=0.38

new transformer.UNTRMT_5270686 phases=3 windings=2 %r=1.55 xhl=3.14 kva=75.0
~ wdg=1 bus=80447285001991.1.2.3 conn=delta kv=13.8
~ wdg=2 bus=80447285270686.1.2.3.0 conn=wye kv=0.38

new transformer.UNTRMT_5270687 phases=3 windings=2 %r=1.46 xhl=3.18 kva=112.0
~ wdg=1 bus=80447145001991.1.2.3 conn=delta kv=13.8
~ wdg=2 bus=80447145270687.1.2.3.0 conn=wye kv=0.38

new transformer.UNTRMT_5270688 phases=3 windings=2 %r=1.78 xhl=3.01 kva=30.0
~ wdg=1 bus=80447365001991.1.2.3 conn=delta kv=13.8
~ wdg=2 bus=80447365270688.1.2.3.0 conn=wye kv=0.38

new transformer.UNTRMT_5270689 phases=3 windings=2 %r=1.46 xhl=3.18 kva=112.0
~ wdg=1 bus=80447695001991.1.2.3 conn=delta kv=13.8
~ wdg=2 bus=80447695270689.1.2.3.0 conn=wye kv=0.38

new transformer.UNTRMT_5270690 phases=3 windings=2 %r=1.55 xhl=3.14 kva=75.0
~ wdg=1 bus=80446565001991.1.2.3 conn=delta kv=13.8
~ wdg=2 bus=80446565270690.1.2.3.0 conn=wye kv=0.38

new transformer.UNTRMT_5270691 phases=3 windings=2 %r=1.68 xhl=3.07 kva=45.0
~ wdg=1 bus=80444535001991.1.2.3 conn=delta kv=13.8
~ wdg=2 bus=80444535270691.1.2.3.0 conn=wye kv=0.38

new transformer.UNTRMT_5270692 phases=3 windings=2 %r=1.46 xhl=3.18 kva=112.0
~ wdg=1 bus=80444575001991.1.2.3 conn=delta kv=13.8
~ wdg=2 bus=80444575270692.1.2.3.0 conn=wye kv=0.38

new transformer.UNTRMT_5270693 phases=3 windings=2 %r=1.46 xhl=3.18 kva=112.0
~ wdg=1 bus=80444675001991.1.2.3 conn=delta kv=13.8
~ wdg=2 bus=80444675270693.1.2.3.0 conn=wye kv=0.38

new transformer.UNTRMT_5270717 phases=3 windings=2 %r=1.55 xhl=3.14 kva=75.0
~ wdg=1 bus=80442545001991.1.2.3 conn=delta kv=13.8
~ wdg=2 bus=80442545270717.1.2.3.0 conn=wye kv=0.38

new transformer.UNTRMT_5270718 phases=3 windings=2 %r=1.68 xhl=3.07 kva=45.0
~ wdg=1 bus=80442625001991.1.2.3 conn=delta kv=13.8
~ wdg=2 bus=80442625270718.1.2.3.0 conn=wye kv=0.38

new transformer.UNTRMT_5270719 phases=3 windings=2 %r=1.55 xhl=3.14 kva=75.0
~ wdg=1 bus=80440615001991.1.2.3 conn=delta kv=13.8
~ wdg=2 bus=80440615270719.1.2.3.0 conn=wye kv=0.38

new transformer.UNTRMT_5270720 phases=3 windings=2 %r=1.78 xhl=3.01 kva=30.0
~ wdg=1 bus=80440635001991.1.2.3 conn=delta kv=13.8
~ wdg=2 bus=80440635270720.1.2.3.0 conn=wye kv=0.38

new transformer.UNTRMT_5270721 phases=3 windings=2 %r=1.68 xhl=3.07 kva=45.0
~ wdg=1 bus=80440735001991.1.2.3 conn=delta kv=13.8
~ wdg=2 bus=80440735270721.1.2.3.0 conn=wye kv=0.38

new transformer.UNTRMT_5270722 phases=3 windings=2 %r=1.46 xhl=3.18 kva=112.0
~ wdg=1 bus=80443025001991.1.2.3 conn=delta kv=13.8
~ wdg=2 bus=80443025270722.1.2.3.0 conn=wye kv=0.38

new transformer.UNTRMT_5270723 phases=3 windings=2 %r=1.46 xhl=3.18 kva=112.0
~ wdg=1 bus=80443175001991.1.2.3 conn=delta kv=13.8
~ wdg=2 bus=80443175270723.1.2.3.0 conn=wye kv=0.38

new transformer.UNTRMT_5270724 phases=3 windings=2 %r=1.55 xhl=3.14 kva=75.0
~ wdg=1 bus=80443795001991.1.2.3 conn=delta kv=13.8
~ wdg=2 bus=80443795270724.1.2.3.0 conn=wye kv=0.38

new transformer.UNTRMT_5270725 phases=3 windings=2 %r=1.46 xhl=3.18 kva=112.0
~ wdg=1 bus=80443325001991.1.2.3 conn=delta kv=13.8
~ wdg=2 bus=80443325270725.1.2.3.0 conn=wye kv=0.38

new transformer.UNTRMT_5270726 phases=3 windings=2 %r=1.46 xhl=3.18 kva=112.0
~ wdg=1 bus=80443355001991.1.2.3 conn=delta kv=13.8
~ wdg=2 bus=80443355270726.1.2.3.0 conn=wye kv=0.38

new transformer.UNTRMT_5270727 phases=3 windings=2 %r=1.55 xhl=3.14 kva=75.0
~ wdg=1 bus=80443445001991.1.2.3 conn=delta kv=13.8
~ wdg=2 bus=80443445270727.1.2.3.0 conn=wye kv=0.38

new transformer.UNTRMT_5270728 phases=3 windings=2 %r=1.55 xhl=3.14 kva=75.0
~ wdg=1 bus=80443475001991.1.2.3 conn=delta kv=13.8
~ wdg=2 bus=80443475270728.1.2.3.0 conn=wye kv=0.38

new transformer.UNTRMT_5270729 phases=3 windings=2 %r=1.68 xhl=3.07 kva=45.0
~ wdg=1 bus=80440725001991.1.2.3 conn=delta kv=13.8
~ wdg=2 bus=80440725270729.1.2.3.0 conn=wye kv=0.38

new transformer.UNTRMT_5270731 phases=3 windings=2 %r=1.46 xhl=3.18 kva=112.0
~ wdg=1 bus=80441735001991.1.2.3 conn=delta kv=13.8
~ wdg=2 bus=80441735270731.1.2.3.0 conn=wye kv=0.38

new transformer.UNTRMT_5270733 phases=3 windings=2 %r=1.46 xhl=3.18 kva=112.0
~ wdg=1 bus=80441175001991.1.2.3 conn=delta kv=13.8
~ wdg=2 bus=80441175270733.1.2.3.0 conn=wye kv=0.38

new transformer.UNTRMT_5270734 phases=3 windings=2 %r=1.46 xhl=3.18 kva=112.0
~ wdg=1 bus=80441285001991.1.2.3 conn=delta kv=13.8
~ wdg=2 bus=80441285270734.1.2.3.0 conn=wye kv=0.38

new transformer.UNTRMT_5270735 phases=3 windings=2 %r=1.46 xhl=3.18 kva=112.0
~ wdg=1 bus=80441575001991.1.2.3 conn=delta kv=13.8
~ wdg=2 bus=80441575270735.1.2.3.0 conn=wye kv=0.38

new transformer.UNTRMT_5270736 phases=3 windings=2 %r=1.46 xhl=3.18 kva=112.0
~ wdg=1 bus=80442165001991.1.2.3 conn=delta kv=13.8
~ wdg=2 bus=80442165270736.1.2.3.0 conn=wye kv=0.38

new transformer.UNTRMT_5270737 phases=3 windings=2 %r=1.46 xhl=3.18 kva=112.0
~ wdg=1 bus=80442415001991.1.2.3 conn=delta kv=13.8
~ wdg=2 bus=80442415270737.1.2.3.0 conn=wye kv=0.38

new transformer.UNTRMT_5270738 phases=3 windings=2 %r=1.55 xhl=3.14 kva=75.0
~ wdg=1 bus=80441965001991.1.2.3 conn=delta kv=13.8
~ wdg=2 bus=80441965270738.1.2.3.0 conn=wye kv=0.38

new transformer.UNTRMT_5270739 phases=3 windings=2 %r=1.55 xhl=3.14 kva=75.0
~ wdg=1 bus=80441995001991.1.2.3 conn=delta kv=13.8
~ wdg=2 bus=80441995270739.1.2.3.0 conn=wye kv=0.38

new transformer.UNTRMT_5270740 phases=3 windings=2 %r=1.46 xhl=3.18 kva=112.0
~ wdg=1 bus=80442205001991.1.2.3 conn=delta kv=13.8
~ wdg=2 bus=80442205270740.1.2.3.0 conn=wye kv=0.38

new transformer.UNTRMT_5270741 phases=3 windings=2 %r=1.55 xhl=3.14 kva=75.0
~ wdg=1 bus=80447705001991.1.2.3 conn=delta kv=13.8
~ wdg=2 bus=80447705270741.1.2.3.0 conn=wye kv=0.38

new transformer.UNTRMT_5270742 phases=3 windings=2 %r=1.46 xhl=3.18 kva=112.0
~ wdg=1 bus=80445775001991.1.2.3 conn=delta kv=13.8
~ wdg=2 bus=80445775270742.1.2.3.0 conn=wye kv=0.38

new transformer.UNTRMT_5270743 phases=3 windings=2 %r=1.55 xhl=3.14 kva=75.0
~ wdg=1 bus=80445805001991.1.2.3 conn=delta kv=13.8
~ wdg=2 bus=80445805270743.1.2.3.0 conn=wye kv=0.38

new transformer.UNTRMT_5270744 phases=3 windings=2 %r=1.55 xhl=3.14 kva=75.0
~ wdg=1 bus=80446225001991.1.2.3 conn=delta kv=13.8
~ wdg=2 bus=80446225270744.1.2.3.0 conn=wye kv=0.38

new transformer.UNTRMT_5270745 phases=3 windings=2 %r=1.55 xhl=3.14 kva=75.0
~ wdg=1 bus=80445935001991.1.2.3 conn=delta kv=13.8
~ wdg=2 bus=80445935270745.1.2.3.0 conn=wye kv=0.38

new transformer.UNTRMT_5270746 phases=3 windings=2 %r=1.46 xhl=3.18 kva=112.0
~ wdg=1 bus=80445945001991.1.2.3 conn=delta kv=13.8
~ wdg=2 bus=80445945270746.1.2.3.0 conn=wye kv=0.38

new transformer.UNTRMT_5270747 phases=3 windings=2 %r=1.55 xhl=3.14 kva=75.0
~ wdg=1 bus=80446145001991.1.2.3 conn=delta kv=13.8
~ wdg=2 bus=80446145270747.1.2.3.0 conn=wye kv=0.38

new transformer.UNTRMT_5270748 phases=3 windings=2 %r=1.55 xhl=3.14 kva=75.0
~ wdg=1 bus=80446435001991.1.2.3 conn=delta kv=13.8
~ wdg=2 bus=80446435270748.1.2.3.0 conn=wye kv=0.38

new transformer.UNTRMT_5270751 phases=3 windings=2 %r=1.46 xhl=3.18 kva=112.0
~ wdg=1 bus=80446825001991.1.2.3 conn=delta kv=13.8
~ wdg=2 bus=80446825270751.1.2.3.0 conn=wye kv=0.38

new transformer.UNTRMT_5270752 phases=3 windings=2 %r=1.55 xhl=3.14 kva=75.0
~ wdg=1 bus=80446445001991.1.2.3 conn=delta kv=13.8
~ wdg=2 bus=80446445270752.1.2.3.0 conn=wye kv=0.38

new transformer.UNTRMT_5270753 phases=3 windings=2 %r=1.46 xhl=3.18 kva=112.0
~ wdg=1 bus=80446495001991.1.2.3 conn=delta kv=13.8
~ wdg=2 bus=80446495270753.1.2.3.0 conn=wye kv=0.38

new transformer.UNTRMT_5270754 phases=3 windings=2 %r=1.46 xhl=3.18 kva=112.0
~ wdg=1 bus=80446505001991.1.2.3 conn=delta kv=13.8
~ wdg=2 bus=80446505270754.1.2.3.0 conn=wye kv=0.38

new transformer.UNTRMT_5270755 phases=3 windings=2 %r=1.46 xhl=3.18 kva=112.0
~ wdg=1 bus=80444335001991.1.2.3 conn=delta kv=13.8
~ wdg=2 bus=80444335270755.1.2.3.0 conn=wye kv=0.38

new transformer.UNTRMT_5270756 phases=3 windings=2 %r=1.55 xhl=3.14 kva=75.0
~ wdg=1 bus=80446635001991.1.2.3 conn=delta kv=13.8
~ wdg=2 bus=80446635270756.1.2.3.0 conn=wye kv=0.38

new transformer.UNTRMT_5270757 phases=3 windings=2 %r=1.46 xhl=3.18 kva=112.0
~ wdg=1 bus=80446645001991.1.2.3 conn=delta kv=13.8
~ wdg=2 bus=80446645270757.1.2.3.0 conn=wye kv=0.38

new transformer.UNTRMT_5270758 phases=3 windings=2 %r=1.55 xhl=3.14 kva=75.0
~ wdg=1 bus=80446975001991.1.2.3 conn=delta kv=13.8
~ wdg=2 bus=80446975270758.1.2.3.0 conn=wye kv=0.38

new transformer.UNTRMT_5270759 phases=3 windings=2 %r=1.46 xhl=3.18 kva=112.0
~ wdg=1 bus=80446985001991.1.2.3 conn=delta kv=13.8
~ wdg=2 bus=80446985270759.1.2.3.0 conn=wye kv=0.38

new transformer.UNTRMT_5270760 phases=3 windings=2 %r=1.46 xhl=3.18 kva=112.0
~ wdg=1 bus=80446805001991.1.2.3 conn=delta kv=13.8
~ wdg=2 bus=80446805270760.1.2.3.0 conn=wye kv=0.38

new transformer.UNTRMT_5270762 phases=3 windings=2 %r=1.46 xhl=3.18 kva=112.0
~ wdg=1 bus=80445595001991.1.2.3 conn=delta kv=13.8
~ wdg=2 bus=80445595270762.1.2.3.0 conn=wye kv=0.38

new transformer.UNTRMT_5270763 phases=3 windings=2 %r=1.55 xhl=3.14 kva=75.0
~ wdg=1 bus=80445635001991.1.2.3 conn=delta kv=13.8
~ wdg=2 bus=80445635270763.1.2.3.0 conn=wye kv=0.38

new transformer.UNTRMT_5270765 phases=3 windings=2 %r=1.46 xhl=3.18 kva=112.0
~ wdg=1 bus=80444875001991.1.2.3 conn=delta kv=13.8
~ wdg=2 bus=80444875270765.1.2.3.0 conn=wye kv=0.38

new transformer.UNTRMT_5270766 phases=3 windings=2 %r=1.46 xhl=3.18 kva=112.0
~ wdg=1 bus=80445025001991.1.2.3 conn=delta kv=13.8
~ wdg=2 bus=80445025270766.1.2.3.0 conn=wye kv=0.38

new transformer.UNTRMT_5270767 phases=3 windings=2 %r=1.57 xhl=3.13 kva=67.0
~ wdg=1 bus=80445505001991.1.2.3 conn=delta kv=13.8
~ wdg=2 bus=80445505270767.1.2.3.0 conn=wye kv=0.38

new transformer.UNTRMT_5270768 phases=3 windings=2 %r=1.46 xhl=3.18 kva=112.0
~ wdg=1 bus=83590845001991.1.2.3 conn=delta kv=13.8
~ wdg=2 bus=83590845270768.1.2.3.0 conn=wye kv=0.38

new transformer.UNTRMT_5271097 phases=3 windings=2 %r=1.15 xhl=5.89 kva=112.0
~ wdg=1 bus=80477845001991.1.2.3 conn=delta kv=13.8
~ wdg=2 bus=80477845271097.1.2.3.0 conn=wye kv=0.38

new transformer.UNTRMT_5271098 phases=3 windings=2 %r=1.46 xhl=3.18 kva=112.0
~ wdg=1 bus=80476675001991.1.2.3 conn=delta kv=13.8
~ wdg=2 bus=80476675271098.1.2.3.0 conn=wye kv=0.38

new transformer.UNTRMT_5271103 phases=3 windings=2 %r=1.25 xhl=4.32 kva=300.0
~ wdg=1 bus=80475675001991.1.2.3 conn=delta kv=13.8
~ wdg=2 bus=80475675271103.1.2.3.0 conn=wye kv=0.38

new transformer.UNTRMT_5271104 phases=3 windings=2 %r=1.25 xhl=4.32 kva=300.0
~ wdg=1 bus=80476095001991.1.2.3 conn=delta kv=13.8
~ wdg=2 bus=80476095271104.1.2.3.0 conn=wye kv=0.38

new transformer.UNTRMT_5271105 phases=3 windings=2 %r=1.55 xhl=3.14 kva=75.0
~ wdg=1 bus=80476135001991.1.2.3 conn=delta kv=13.8
~ wdg=2 bus=80476135271105.1.2.3.0 conn=wye kv=0.38

new transformer.UNTRMT_5271107 phases=3 windings=2 %r=1.3 xhl=4.31 kva=450.0
~ wdg=1 bus=80475365001991.1.2.3 conn=delta kv=13.8
~ wdg=2 bus=80475365271107.1.2.3.0 conn=wye kv=0.38

new transformer.UNTRMT_5271107_2 phases=3 windings=2 %r=1.3 xhl=4.31 kva=450.0
~ wdg=1 bus=80475365001991.1.2.3 conn=delta kv=13.8
~ wdg=2 bus=80475365271107_2.1.2.3.0 conn=wye kv=0.38

new transformer.UNTRMT_5271108 phases=3 windings=2 %r=1.46 xhl=3.18 kva=112.0
~ wdg=1 bus=80475755001991.1.2.3 conn=delta kv=13.8
~ wdg=2 bus=80475755271108.1.2.3.0 conn=wye kv=0.38

new transformer.UNTRMT_5271109 phases=3 windings=2 %r=1.25 xhl=4.32 kva=300.0
~ wdg=1 bus=80475795001991.1.2.3 conn=delta kv=13.8
~ wdg=2 bus=80475795271109.1.2.3.0 conn=wye kv=0.38

new transformer.UNTRMT_5271110 phases=3 windings=2 %r=1.3 xhl=4.31 kva=225.0
~ wdg=1 bus=80475845001991.1.2.3 conn=delta kv=13.8
~ wdg=2 bus=80475845271110.1.2.3.0 conn=wye kv=0.38

new transformer.UNTRMT_5271111 phases=3 windings=2 %r=1.25 xhl=4.32 kva=300.0
~ wdg=1 bus=80476005001991.1.2.3 conn=delta kv=13.8
~ wdg=2 bus=80476005271111.1.2.3.0 conn=wye kv=0.38

new transformer.UNTRMT_5271112 phases=3 windings=2 %r=1.68 xhl=3.07 kva=45.0
~ wdg=1 bus=80476045001991.1.2.3 conn=delta kv=13.8
~ wdg=2 bus=80476045271112.1.2.3.0 conn=wye kv=0.38

new transformer.UNTRMT_5271113 phases=3 windings=2 %r=1.55 xhl=3.14 kva=75.0
~ wdg=1 bus=80478865001991.1.2.3 conn=delta kv=13.8
~ wdg=2 bus=80478865271113.1.2.3.0 conn=wye kv=0.38

new transformer.UNTRMT_5271118 phases=3 windings=2 %r=1.3 xhl=4.31 kva=225.0
~ wdg=1 bus=80476815001991.1.2.3 conn=delta kv=13.8
~ wdg=2 bus=80476815271118.1.2.3.0 conn=wye kv=0.38

new transformer.UNTRMT_5271120 phases=3 windings=2 %r=1.46 xhl=3.18 kva=112.0
~ wdg=1 bus=80477185001991.1.2.3 conn=delta kv=13.8
~ wdg=2 bus=80477185271120.1.2.3.0 conn=wye kv=0.38

new transformer.UNTRMT_5271125 phases=3 windings=2 %r=1.07 xhl=5.9 kva=112.0
~ wdg=1 bus=80478555001991.1.2.3 conn=delta kv=13.8
~ wdg=2 bus=80478555271125.1.2.3.0 conn=wye kv=0.38

new transformer.UNTRMT_5271127 phases=3 windings=2 %r=1.55 xhl=3.14 kva=75.0
~ wdg=1 bus=80478675001991.1.2.3 conn=delta kv=13.8
~ wdg=2 bus=80478675271127.1.2.3.0 conn=wye kv=0.38

new transformer.UNTRMT_5271128 phases=3 windings=2 %r=1.25 xhl=4.32 kva=300.0
~ wdg=1 bus=80478745001991.1.2.3 conn=delta kv=13.8
~ wdg=2 bus=80478745271128.1.2.3.0 conn=wye kv=0.38

new transformer.UNTRMT_5271131 phases=3 windings=2 %r=1.3 xhl=4.31 kva=225.0
~ wdg=1 bus=80478805001991.1.2.3 conn=delta kv=13.8
~ wdg=2 bus=80478805271131.1.2.3.0 conn=wye kv=0.38

new transformer.UNTRMT_5271132 phases=3 windings=2 %r=1.25 xhl=4.32 kva=300.0
~ wdg=1 bus=80477475001991.1.2.3 conn=delta kv=13.8
~ wdg=2 bus=80477475271132.1.2.3.0 conn=wye kv=0.38

...